Circuit: * C:\Users\JOYDEEP DAS\Desktop\codes\LTspice works\tut2\Draft6.asc


Date: Thu Aug 20 01:24:04 2015
Total elapsed time: 0.045 seconds.

tnom = 27
temp = 27
method = trap
totiter = 517
traniter = 0
tranpoints = 0
accept = 0
rejected = 0
matrix size = 8
fillins = 0
solver = Normal
Matrix Compiler1: 300 bytes object code size  0.1/0.1/[0.0]
Matrix Compiler2: 602 bytes object code size  0.2/0.2/[0.1]


