Circuit: * C:\Users\JOYDEEP DAS\Desktop\codes\LTspice works\tut2\Draft4.asc

WARNING: Less than two connections to node N009.  This node is used by V3.
Direct Newton iteration for .op point succeeded.

Date: Wed Sep 09 14:53:30 2015
Total elapsed time: 0.091 seconds.

tnom = 27
temp = 27
method = modified trap
totiter = 2189
traniter = 2180
tranpoints = 1091
accept = 1091
rejected = 0
matrix size = 15
fillins = 6
solver = Normal
Matrix Compiler1: 988 bytes object code size  0.4/0.4/[0.1]
Matrix Compiler2:     105 opcodes  0.4/[0.2]/0.2


