Circuit: * C:\Users\JOYDEEP DAS\Desktop\codes\LTspice works\tut2\Draft3.asc

Direct Newton iteration for .op point succeeded.

Date: Wed Sep 09 14:18:30 2015
Total elapsed time: 0.155 seconds.

tnom = 27
temp = 27
method = modified trap
totiter = 2091
traniter = 2082
tranpoints = 1042
accept = 1042
rejected = 0
matrix size = 17
fillins = 19
solver = Normal
Thread vector: 16.1/10.3[3] 5.0/5.2[1] 3.0/3.6[1] 0.2/1.2[1]  2592/500
Matrix Compiler1: 1.78 KB object code size  0.6/0.4/[0.3]
Matrix Compiler2: 1.58 KB object code size  0.3/0.5/[0.2]


