Circuit: * C:\Users\JOYDEEP DAS\Desktop\codes\LTspice works\tut2\Draft7.asc

Error on line 3 : v2 n002 0 v
	 Unknown parameter "v"
Error on line 4 : v4 n002 n001 v
	 Unknown parameter "v"
WARNING: Node N004 is floating.

V4: Missing value, assumed 0V @ DC
V2: Missing value, assumed 0V @ DC
.step v=0
.OP point found by inspection.
.step v=0.5
.step v=1
.step v=1.5

Date: Fri Aug 21 14:58:18 2015
Total elapsed time: 0.364 seconds.

tnom = 27
temp = 27
method = trap
totiter = 2006
traniter = 0
tranpoints = 0
accept = 0
rejected = 0
matrix size = 7
fillins = 0
solver = Normal
Matrix Compiler1: 142 bytes object code size  0.1/0.1/[0.0]
Matrix Compiler2: 459 bytes object code size  0.1/0.1/[0.0]


