Circuit: * C:\Users\JOYDEEP DAS\Desktop\codes\LTspice works\tut2\Draft5.asc

WARNING: Node N005 is floating.
WARNING: Node N002 is floating.


Date: Fri Aug 21 14:50:04 2015
Total elapsed time: 0.372 seconds.

tnom = 27
temp = 27
method = trap
totiter = 2011
traniter = 0
tranpoints = 0
accept = 0
rejected = 0
matrix size = 7
fillins = 0
solver = Normal
Matrix Compiler1:      19 opcodes  0.1/[0.0]/0.1
Matrix Compiler2: 571 bytes object code size  0.1/0.6/[0.1]


