Circuit: * C:\Users\JOYDEEP DAS\Desktop\codes\LTspice works\tut2\Draft2.asc

Early termination of direct N-R iteration.
Direct Newton iteration failed to find .op point.  (Use ".option noopiter" to skip.)
Starting Gmin stepping
Gmin = 10
Gmin = 1.07374
Gmin = 0.115292
Gmin = 0.0123794
Gmin = 0.00132923
Gmin = 0.000142725
vernier = 0.5
vernier = 0.25
vernier = 0.125
vernier = 0.0625
Gmin = 4.67681e-005
vernier = 0.03125
vernier = 0.015625
vernier = 0.0078125
vernier = 0.00390625
vernier = 0.00195313
vernier = 0.000976563
vernier = 0.000488281
Gmin = 0
Gmin stepping succeeded in finding the operating point.


Date: Wed Sep 09 14:09:01 2015
Total elapsed time: 0.345 seconds.

tnom = 27
temp = 27
method = modified trap
totiter = 17124
traniter = 15745
tranpoints = 5461
accept = 4689
rejected = 772
matrix size = 17
fillins = 18
solver = Normal
Thread vector: 17.1/12.6[2] 4.1/3.4[2] 4.6/1.6[2] 0.2/1.3[1]  2592/500
Matrix Compiler1: 4.04 KB object code size  1.1/0.7/[0.5]
Matrix Compiler2: off  [0.3]/0.6/0.4


