Circuit: * C:\Users\JOYDEEP DAS\Desktop\codes\LTspice works\tut2\problem.asc

Direct Newton iteration failed to find .op point.  (Use ".option noopiter" to skip.)
Starting Gmin stepping
Gmin = 10
Gmin = 1.07374
vernier = 0.5
vernier = 0.25
vernier = 0.125
vernier = 0.0625
vernier = 0.03125
Gmin = 1.0412
vernier = 0.015625
vernier = 0.0078125
Gmin = 1.0132
vernier = 0.00390625
vernier = 0.00195313
Gmin = 1.00827
vernier = 0.00260417
vernier = 0.00130208
Gmin = 1.00515
vernier = 0.000651042
vernier = 0.000868055
vernier = 0.000434028
Gmin = 1.00434
vernier = 0.000578703
vernier = 0.000434027
Gmin = 1.00339
Gmin = 0
Gmin stepping failed

Starting source stepping with srcstepmethod=0
Source Step = 3.0303%
Source Step = 33.3333%
Source Step = 63.6364%
Source Step = 93.9394%
Source stepping succeeded in finding the operating point.


Date: Wed Sep 09 14:52:30 2015
Total elapsed time: 0.290 seconds.

tnom = 27
temp = 27
method = modified trap
totiter = 7322
traniter = 2507
tranpoints = 1073
accept = 1066
rejected = 7
matrix size = 21
fillins = 11
solver = Normal
Thread vector: 7.6/6.0[2] 2.2/1.6[2] 1.3/1.0[2] 0.1/2.0[1]  2592/500
Matrix Compiler1: 1.37 KB object code size  0.4/0.2/[0.2]
Matrix Compiler2: off  [0.2]/0.6/0.4


