Circuit: * C:\Users\JOYDEEP DAS\Desktop\codes\LTspice works\tut2\tut2 Q6 b.asc

WARNING: Node N006 is floating.
WARNING: Node N003 is floating.


Date: Thu Aug 27 02:53:44 2015
Total elapsed time: 0.069 seconds.

tnom = 27
temp = 27
method = trap
totiter = 2011
traniter = 0
tranpoints = 0
accept = 0
rejected = 0
matrix size = 9
fillins = 0
solver = Normal
Matrix Compiler1: 314 bytes object code size  0.1/0.0/[0.0]
Matrix Compiler2: 701 bytes object code size  0.1/0.1/[0.0]


