Circuit: * C:\Users\JOYDEEP DAS\Desktop\codes\LTspice works\tut2\tut2 Q4.asc


Date: Thu Aug 27 19:36:48 2015
Total elapsed time: 0.017 seconds.

tnom = 27
temp = 27
method = trap
totiter = 415
traniter = 0
tranpoints = 0
accept = 0
rejected = 0
matrix size = 6
fillins = 0
solver = Normal
Matrix Compiler1: 182 bytes object code size  0.1/0.0/[0.0]
Matrix Compiler2: off  [0.1]/0.1/0.1


