Circuit: * C:\Users\JOYDEEP DAS\Desktop\codes\LTspice works\tut2\tut2 Q6.asc

WARNING: Node N004 is floating.


Date: Thu Aug 27 02:51:51 2015
Total elapsed time: 0.053 seconds.

tnom = 27
temp = 27
method = trap
totiter = 2006
traniter = 0
tranpoints = 0
accept = 0
rejected = 0
matrix size = 7
fillins = 0
solver = Normal
Matrix Compiler1: 142 bytes object code size  0.0/0.0/[0.0]
Matrix Compiler2: 459 bytes object code size  0.0/0.1/[0.0]


