Circuit: * C:\Users\JOYDEEP DAS\Desktop\codes\LTspice works\tut2\tut2 Q2.asc

.OP point found by inspection.

Date: Thu Aug 27 02:38:58 2015
Total elapsed time: 0.062 seconds.

tnom = 27
temp = 27
method = modified trap
totiter = 2418
traniter = 2418
tranpoints = 1135
accept = 1105
rejected = 30
matrix size = 4
fillins = 0
solver = Normal
Matrix Compiler1: 100 bytes object code size  0.1/0.0/[0.0]
Matrix Compiler2: 248 bytes object code size  0.1/0.0/[0.0]


