Circuit: * C:\Users\JOYDEEP DAS\Desktop\codes\LTspice works\tut2\tut2 Q1.asc

V1: Missing value, assumed 0V @ DC

Date: Thu Aug 27 02:33:17 2015
Total elapsed time: 0.038 seconds.

tnom = 27
temp = 27
method = trap
totiter = 2008
traniter = 0
tranpoints = 0
accept = 0
rejected = 0
matrix size = 4
fillins = 0
solver = Normal
Matrix Compiler1: 100 bytes object code size  0.3/0.0/[0.0]
Matrix Compiler2: 248 bytes object code size  0.0/0.1/[0.0]


