Circuit: * C:\Users\JOYDEEP DAS\Desktop\codes\LTspice works\tut2\tut2 Q7.asc

WARNING: Node N002 is floating.
WARNING: Node N005 is floating.


Date: Thu Aug 27 02:56:16 2015
Total elapsed time: 0.063 seconds.

tnom = 27
temp = 27
method = trap
totiter = 2007
traniter = 0
tranpoints = 0
accept = 0
rejected = 0
matrix size = 8
fillins = 0
solver = Normal
Matrix Compiler1: 174 bytes object code size  0.0/0.1/[0.0]
Matrix Compiler2: 572 bytes object code size  0.1/0.1/[0.0]


