Circuit: * C:\Users\JOYDEEP DAS\Desktop\codes\LTspice works\tut2\tut2 Q3.asc


Date: Fri Aug 28 15:42:20 2015
Total elapsed time: 0.015 seconds.

tnom = 27
temp = 27
method = trap
totiter = 516
traniter = 0
tranpoints = 0
accept = 0
rejected = 0
matrix size = 7
fillins = 0
solver = Normal
Matrix Compiler1: 196 bytes object code size  0.1/0.0/[0.0]
Matrix Compiler2: 461 bytes object code size  0.1/0.1/[0.0]


