Circuit: * C:\Users\JOYDEEP DAS\Desktop\codes\LTspice works\tut2\tut2 Q10 NMOS Vgs Vdd.asc

WARNING: Node N004 is floating.


Date: Fri Aug 28 00:17:12 2015
Total elapsed time: 0.145 seconds.

tnom = 27
temp = 27
method = trap
totiter = 2024
traniter = 0
tranpoints = 0
accept = 0
rejected = 0
matrix size = 7
fillins = 0
solver = Normal
Matrix Compiler1: 160 bytes object code size  0.1/0.0/[0.0]
Matrix Compiler2: off  [0.0]/0.1/0.1


