Circuit: * C:\Users\JOYDEEP DAS\Desktop\codes\LTspice works\tut2\tut2 Q2 2c.asc

.OP point found by inspection.

Date: Thu Aug 27 02:37:32 2015
Total elapsed time: 0.067 seconds.

tnom = 27
temp = 27
method = modified trap
totiter = 2968
traniter = 2968
tranpoints = 1425
accept = 1364
rejected = 61
matrix size = 3
fillins = 0
solver = Normal
Matrix Compiler1: off  [0.0]/0.1/0.1
Matrix Compiler2: 175 bytes object code size  0.1/0.1/[0.0]


