Circuit: * C:\Users\JOYDEEP DAS\Desktop\codes\LTspice works\tut2\tut2 Q5.asc


Date: Thu Aug 27 02:49:25 2015
Total elapsed time: 0.037 seconds.

tnom = 27
temp = 27
method = trap
totiter = 2017
traniter = 0
tranpoints = 0
accept = 0
rejected = 0
matrix size = 8
fillins = 0
solver = Normal
Matrix Compiler1: 300 bytes object code size  0.1/0.1/[0.0]
Matrix Compiler2: 602 bytes object code size  0.1/0.1/[0.1]


