Circuit: * C:\Users\JOYDEEP DAS\Desktop\LTspice works\Draft2.asc

Direct Newton iteration for .op point succeeded.

Date: Wed Jul 29 15:27:01 2015
Total elapsed time: 1.319 seconds.

tnom = 27
temp = 27
method = modified trap
totiter = 271513
traniter = 271510
tranpoints = 135756
accept = 135755
rejected = 1
matrix size = 6
fillins = 0
solver = Normal
Matrix Compiler1: 200 bytes object code size  0.1/0.0/[0.0]
Matrix Compiler2: off  [0.0]/0.1/0.1


