Circuit: * C:\Users\JOYDEEP DAS\Desktop\codes\LTspice works\Draft5.asc

.OP point found by inspection.

Date: Fri Aug 14 14:53:21 2015
Total elapsed time: 0.058 seconds.

tnom = 27
temp = 27
method = modified trap
totiter = 3534
traniter = 3534
tranpoints = 1606
accept = 1483
rejected = 123
matrix size = 3
fillins = 0
solver = Normal
Matrix Compiler1: 50 bytes object code size  0.0/0.0/[0.0]
Matrix Compiler2: 175 bytes object code size  0.0/0.1/[0.0]


