Circuit: * C:\Users\JOYDEEP DAS\Desktop\LTspice works\EC-291.asc

Direct Newton iteration for .op point succeeded.

Date: Wed Jul 29 15:53:27 2015
Total elapsed time: 0.046 seconds.

tnom = 27
temp = 27
method = modified trap
totiter = 2099
traniter = 2096
tranpoints = 1049
accept = 1049
rejected = 0
matrix size = 6
fillins = 0
solver = Normal
Matrix Compiler1: 200 bytes object code size  0.1/0.1/[0.0]
Matrix Compiler2: 394 bytes object code size  0.1/0.1/[0.0]


