Circuit: * C:\Users\JOYDEEP DAS\Desktop\codes\LTspice works\prob2i.asc

.OP point found by inspection.

Date: Wed Aug 12 15:15:32 2015
Total elapsed time: 0.125 seconds.

tnom = 27
temp = 27
method = modified trap
totiter = 2282
traniter = 2282
tranpoints = 1142
accept = 1141
rejected = 1
matrix size = 4
fillins = 0
solver = Normal
Matrix Compiler1:       6 opcodes  0.1/[0.0]/0.0
Matrix Compiler2: 248 bytes object code size  0.1/0.1/[0.0]


