Circuit: * C:\Users\JOYDEEP DAS\Desktop\codes\LTspice works\prob2.asc

.OP point found by inspection.

Date: Wed Aug 12 14:42:13 2015
Total elapsed time: 79.145 seconds.

tnom = 27
temp = 27
method = modified trap
totiter = 30516046
traniter = 30516046
tranpoints = 15258024
accept = 10793942
rejected = 4464082
matrix size = 4
fillins = 0
solver = Normal
Matrix Compiler1: 100 bytes object code size  0.1/0.0/[0.0]
Matrix Compiler2: 248 bytes object code size  0.0/0.1/[0.0]


